LAMMPS (9 Nov 2011)

dimension       3
units           lj
atom_style      bond

read_data       init.dat
  orthogonal box = (-24 -24 -24) to (72 72 72)
  10240 atoms
  2400 bonds

group c1 id <> 1 980
980 atoms in group c1
group b1 id <> 981 1280
300 atoms in group b1

group c2 id <> 1281 2260
980 atoms in group c2
group b2 id <> 2261 2560
300 atoms in group b2

group c3 id <> 2561 3540
980 atoms in group c3
group b3 id <> 3541 3840
300 atoms in group b3

group c4 id <> 3841 4820
980 atoms in group c4
group b4 id <> 4821 5120
300 atoms in group b4

group c5 id <> 5121 6100
980 atoms in group c5
group b5 id <> 6101 6400
300 atoms in group b5

group c6 id <> 6401 7380
980 atoms in group c6
group b6 id <> 7381 7680
300 atoms in group b6

group c7 id <> 7681 8660
980 atoms in group c7
group b7 id <> 8661 8960
300 atoms in group b7

group c8 id <> 8961 9940
980 atoms in group c8
group b8 id <> 9941 10240
300 atoms in group b8

group core union c1 c2 c3 c4 c5 c6 c7 c8
7840 atoms in group core
group brush union b1 b2 b3 b4 b5 b6 b7 b8
2400 atoms in group brush

neighbor        2.0 bin
neigh_modify    delay 10
neigh_modify    exclude group c1 c1
neigh_modify    exclude group c2 c2
neigh_modify    exclude group c3 c3
neigh_modify    exclude group c4 c4
neigh_modify    exclude group c5 c5
neigh_modify    exclude group c6 c6
neigh_modify    exclude group c7 c7
neigh_modify    exclude group c8 c8

bond_style      fene
bond_coeff      1 30.0 1.5 1.0 1.0
special_bonds   fene

# LJ potentials
#pair_style      lj/cut 2.5
#pair_coeff      * * 1.0 1.0 1.0 #no attr
pair_style soft 2.5
pair_coeff * * 10

velocity        all create 0.6 4928459 dist gaussian
fix             1 brush nve
fix             2 brush langevin 1.0 1.0 1.0 654321
fix             3 core rigid molecule langevin 1.0 2.0 1.0 428984
8 rigid bodies with 7840 atoms

timestep        0.005
thermo          10

dump            1 all atom 100 dbrush.lammpstrj
dump_modify     1 sort id
run             10000
Step Temp E_pair E_mol TotEng Press
0   0.59388997   0.48193943    4.8839434    5.5759772 -0.066877081
Averages over the last 501 of 1001 rows, steps 5000 to 10000:
Temp E_pair E_mol TotEng Press
1.00103 0.68801 4.94456 5.9867 -0.000704448
Loop time of 25.6857 on 1 procs for 10000 steps with 10240 atoms

Pair  time (%) = 6.88844 (26.8181)
Bond  time (%) = 1.54156 (6.00161)
Neigh time (%) = 3.66952 (14.2862)
Comm  time (%) = 0.0827585 (0.322196)
Outpt time (%) = 1.47401 (5.73862)
Other time (%) = 12.0295 (46.8332)

write_restart soft.restart
